Version 4
SHEET 1 980 680
WIRE 16 -128 -64 -128
WIRE 112 -128 112 -192
WIRE 112 -128 96 -128
WIRE 128 -128 112 -128
WIRE 224 -128 208 -128
WIRE 304 -128 304 -192
WIRE 304 -128 224 -128
WIRE -64 -96 -64 -128
WIRE 112 -96 112 -128
WIRE 224 -96 224 -128
WIRE 304 -96 304 -128
WIRE -64 0 -64 -16
WIRE 112 0 112 -32
WIRE 224 0 224 -16
WIRE 304 0 304 -32
WIRE 592 80 592 32
WIRE 304 96 304 64
WIRE 544 96 544 64
WIRE 560 96 544 96
WIRE 256 112 256 80
WIRE 272 112 256 112
WIRE 656 112 624 112
WIRE 704 112 656 112
WIRE 800 112 768 112
WIRE 912 112 880 112
WIRE 368 128 336 128
WIRE 432 128 368 128
WIRE 544 128 512 128
WIRE 560 128 544 128
WIRE 80 144 16 144
WIRE 160 144 144 144
WIRE 256 144 240 144
WIRE 272 144 256 144
WIRE 592 160 592 144
WIRE 16 176 16 144
WIRE 304 176 304 160
WIRE 256 240 256 144
WIRE 272 240 256 240
WIRE 368 240 368 128
WIRE 368 240 352 240
WIRE 544 240 544 128
WIRE 560 240 544 240
WIRE 656 240 656 112
WIRE 656 240 640 240
WIRE 16 272 16 256
WIRE 256 336 256 240
WIRE 272 336 256 336
WIRE 368 336 368 240
WIRE 368 336 336 336
WIRE 544 336 544 240
WIRE 560 336 544 336
WIRE 656 336 656 240
WIRE 656 336 624 336
FLAG -64 0 0
FLAG 112 0 0
FLAG 224 0 0
FLAG 304 0 0
FLAG 112 -192 Vr
FLAG 304 -192 Vb
FLAG 256 80 Vb
FLAG 544 64 Vb
FLAG 912 112 OUT
FLAG 16 272 0
FLAG 304 176 0
FLAG 592 160 0
FLAG 304 64 Vr
FLAG 592 32 Vr
SYMBOL cap 144 128 R90
WINDOW 0 0 32 VBottom 2
WINDOW 3 32 32 VTop 2
SYMATTR InstName C1
SYMATTR Value 22n
SYMBOL res 256 128 R90
WINDOW 0 0 56 VBottom 2
WINDOW 3 32 56 VTop 2
SYMATTR InstName R1
SYMATTR Value 180k
SYMBOL Opamps\\NJM4558 304 64 R0
SYMATTR InstName U1
SYMATTR Value NJM4558C_s
SYMBOL Opamps\\NJM4558 592 48 R0
SYMATTR InstName U2
SYMATTR Value NJM4558C_s
SYMBOL voltage -64 -112 R0
WINDOW 123 0 0 Left 2
WINDOW 39 0 0 Left 2
SYMATTR InstName V1
SYMATTR Value 9V
SYMBOL res 112 -144 R90
WINDOW 0 0 56 VBottom 2
WINDOW 3 32 56 VTop 2
SYMATTR InstName R2
SYMATTR Value 47
SYMBOL cap 96 -96 R0
SYMATTR InstName C2
SYMATTR Value 100µ
SYMBOL res 224 -144 R90
WINDOW 0 0 56 VBottom 2
WINDOW 3 32 56 VTop 2
SYMATTR InstName R3
SYMATTR Value 100k
SYMBOL res 208 -112 R0
SYMATTR InstName R4
SYMATTR Value 100k
SYMBOL cap 288 -96 R0
SYMATTR InstName C3
SYMATTR Value 47µ
SYMBOL voltage 16 160 R0
WINDOW 123 24 124 Left 2
WINDOW 39 0 0 Left 2
SYMATTR InstName V2
SYMATTR Value SINE(0 100m 800)
SYMATTR Value2 AC 1 0
SYMBOL res 368 224 R90
WINDOW 0 0 56 VBottom 2
WINDOW 3 32 56 VTop 2
SYMATTR InstName R5
SYMATTR Value 360k
SYMBOL cap 336 320 R90
WINDOW 0 0 32 VBottom 2
WINDOW 3 32 32 VTop 2
SYMATTR InstName C4
SYMATTR Value 47p
SYMBOL res 528 112 R90
WINDOW 0 0 56 VBottom 2
WINDOW 3 32 56 VTop 2
SYMATTR InstName R6
SYMATTR Value 22k
SYMBOL res 656 224 R90
WINDOW 0 0 56 VBottom 2
WINDOW 3 32 56 VTop 2
SYMATTR InstName R7
SYMATTR Value 12k
SYMBOL cap 624 320 R90
WINDOW 0 0 32 VBottom 2
WINDOW 3 32 32 VTop 2
SYMATTR InstName C5
SYMATTR Value 100p
SYMBOL cap 768 96 R90
WINDOW 0 0 32 VBottom 2
WINDOW 3 32 32 VTop 2
SYMATTR InstName C6
SYMATTR Value 1µ
SYMBOL res 896 96 R90
WINDOW 0 0 56 VBottom 2
WINDOW 3 32 56 VTop 2
SYMATTR InstName R8
SYMATTR Value 1k
TEXT -288 144 Left 2 !.tran 0 25ms 20ms
