Version 4
SHEET 1 3376 680
WIRE 640 -944 192 -944
WIRE 1584 -944 640 -944
WIRE 2144 -944 1584 -944
WIRE 2752 -944 2144 -944
WIRE 2864 -944 2752 -944
WIRE 192 -864 192 -944
WIRE 1584 -864 1584 -944
WIRE 2144 -848 2144 -944
WIRE 192 -736 192 -784
WIRE 1488 -736 1472 -736
WIRE 1568 -736 1552 -736
WIRE 2048 -736 2032 -736
WIRE 2128 -736 2112 -736
WIRE 640 -704 640 -944
WIRE 2416 -704 2384 -704
WIRE 1360 -688 1328 -688
WIRE 1472 -688 1472 -736
WIRE 1472 -688 1424 -688
WIRE 1568 -688 1568 -736
WIRE 1584 -688 1584 -784
WIRE 1584 -688 1568 -688
WIRE 1952 -688 1920 -688
WIRE 2032 -688 2032 -736
WIRE 2032 -688 2016 -688
WIRE 2128 -688 2128 -736
WIRE 2144 -688 2144 -768
WIRE 2144 -688 2128 -688
WIRE 2384 -688 2384 -704
WIRE 2416 -688 2416 -704
WIRE 2864 -672 2864 -944
WIRE 1472 -656 1472 -688
WIRE 1488 -656 1472 -656
WIRE 1568 -656 1568 -688
WIRE 1568 -656 1552 -656
WIRE 2032 -656 2032 -688
WIRE 2048 -656 2032 -656
WIRE 2128 -656 2128 -688
WIRE 2128 -656 2112 -656
WIRE 2752 -608 2752 -944
WIRE 528 -592 512 -592
WIRE 640 -592 640 -624
WIRE 640 -592 592 -592
WIRE 720 -592 640 -592
WIRE 848 -592 784 -592
WIRE 1328 -592 1328 -688
WIRE 1360 -592 1328 -592
WIRE 1584 -592 1584 -688
WIRE 1584 -592 1424 -592
WIRE 1920 -592 1920 -688
WIRE 1952 -592 1920 -592
WIRE 2144 -592 2144 -688
WIRE 2144 -592 2016 -592
WIRE 2272 -544 2240 -544
WIRE 2384 -544 2384 -608
WIRE 2384 -544 2336 -544
WIRE 2864 -544 2864 -592
WIRE 2912 -544 2864 -544
WIRE 3040 -544 2976 -544
WIRE 2384 -512 2384 -544
WIRE 2864 -512 2864 -544
WIRE 512 -496 512 -592
WIRE 528 -496 512 -496
WIRE 640 -496 640 -592
WIRE 640 -496 608 -496
WIRE 1328 -496 1328 -592
WIRE 1360 -496 1328 -496
WIRE 1584 -496 1584 -592
WIRE 1584 -496 1440 -496
WIRE 1648 -496 1584 -496
WIRE 1920 -496 1920 -592
WIRE 1952 -496 1920 -496
WIRE 2144 -496 2144 -592
WIRE 2144 -496 2032 -496
WIRE 2240 -496 2240 -544
WIRE 2240 -496 2144 -496
WIRE 3040 -480 3040 -544
WIRE 640 -464 640 -496
WIRE 848 -464 848 -592
WIRE 1584 -464 1584 -496
WIRE 2144 -464 2144 -496
WIRE 2624 -464 2432 -464
WIRE 2752 -464 2752 -528
WIRE 2752 -464 2688 -464
WIRE 2800 -464 2752 -464
WIRE 3216 -432 3088 -432
WIRE 240 -416 144 -416
WIRE 400 -416 320 -416
WIRE 512 -416 512 -496
WIRE 512 -416 464 -416
WIRE 576 -416 512 -416
WIRE 1072 -416 896 -416
WIRE 1184 -416 1136 -416
WIRE 1328 -416 1328 -496
WIRE 1328 -416 1264 -416
WIRE 1520 -416 1328 -416
WIRE 1648 -416 1648 -496
WIRE 1680 -416 1648 -416
WIRE 1792 -416 1744 -416
WIRE 1920 -416 1920 -496
WIRE 1920 -416 1872 -416
WIRE 2080 -416 1920 -416
WIRE 2240 -400 2240 -496
WIRE 2272 -400 2240 -400
WIRE 2384 -400 2384 -432
WIRE 2384 -400 2352 -400
WIRE 2752 -400 2752 -464
WIRE 144 -368 144 -416
WIRE 2864 -352 2864 -416
WIRE 1328 -336 1328 -416
WIRE 1584 -336 1584 -368
WIRE 1920 -336 1920 -416
WIRE 2144 -336 2144 -368
WIRE 2384 -336 2384 -400
WIRE 512 -320 512 -416
WIRE 640 -320 640 -368
WIRE 848 -320 848 -384
WIRE 1328 -208 1328 -256
WIRE 1584 -208 1584 -256
WIRE 1920 -208 1920 -256
WIRE 2144 -208 2144 -256
WIRE 2384 -208 2384 -272
WIRE 2752 -208 2752 -320
WIRE 2864 -208 2864 -272
WIRE 3040 -208 3040 -400
WIRE 144 -192 144 -288
WIRE 512 -192 512 -240
WIRE 640 -192 640 -240
WIRE 848 -192 848 -240
FLAG 512 -192 0
FLAG 640 -192 0
FLAG 848 -192 0
FLAG 1328 -208 0
FLAG 1584 -208 0
FLAG 1920 -208 0
FLAG 2144 -208 0
FLAG 2384 -208 0
FLAG 2416 -688 0
FLAG 2752 -208 0
FLAG 2864 -208 0
FLAG 3040 -208 0
FLAG 192 -736 0
FLAG 144 -192 0
SYMBOL res 336 -432 R90
WINDOW 0 0 56 VBottom 2
WINDOW 3 32 56 VTop 2
SYMATTR InstName R1
SYMATTR Value 33k
SYMATTR SpiceLine tol=1 pwr=0.1
SYMBOL cap 464 -432 R90
WINDOW 0 0 32 VBottom 2
WINDOW 3 32 32 VTop 2
SYMATTR InstName C1
SYMATTR Value 100n
SYMBOL res 496 -336 R0
SYMATTR InstName R2
SYMATTR Value 100k
SYMBOL res 624 -512 R90
WINDOW 0 0 56 VBottom 2
WINDOW 3 32 56 VTop 2
SYMATTR InstName R3
SYMATTR Value 470k
SYMBOL cap 592 -608 R90
WINDOW 0 0 32 VBottom 2
WINDOW 3 32 32 VTop 2
SYMATTR InstName C2
SYMATTR Value 500p
SYMBOL res 624 -720 R0
SYMATTR InstName R4
SYMATTR Value 10k
SYMBOL cap 784 -608 R90
WINDOW 0 0 32 VBottom 2
WINDOW 3 32 32 VTop 2
SYMATTR InstName C3
SYMATTR Value 100n
SYMBOL npn 576 -464 R0
SYMATTR InstName Q1
SYMATTR Value 2N5089
SYMBOL res 624 -336 R0
SYMATTR InstName R5
SYMATTR Value 100
SYMBOL potentiometer_standard 832 -480 R0
SYMATTR InstName U1
SYMATTR Value Rtot=100K wiper={sustain}
SYMATTR SpiceLine ""
SYMBOL res 832 -336 R0
SYMATTR InstName R6
SYMATTR Value 820
SYMBOL cap 1136 -432 R90
WINDOW 0 0 32 VBottom 2
WINDOW 3 32 32 VTop 2
SYMATTR InstName C4
SYMATTR Value 100n
SYMBOL res 1280 -432 R90
WINDOW 0 0 56 VBottom 2
WINDOW 3 32 56 VTop 2
SYMATTR InstName R7
SYMATTR Value 8.2k
SYMBOL res 1312 -352 R0
SYMATTR InstName R8
SYMATTR Value 100k
SYMBOL res 1456 -512 R90
WINDOW 0 0 56 VBottom 2
WINDOW 3 32 56 VTop 2
SYMATTR InstName R9
SYMATTR Value 470k
SYMBOL cap 1424 -608 R90
WINDOW 0 0 32 VBottom 2
WINDOW 3 32 32 VTop 2
SYMATTR InstName C5
SYMATTR Value 500p
SYMBOL cap 1424 -704 R90
WINDOW 0 0 32 VBottom 2
WINDOW 3 32 32 VTop 2
SYMATTR InstName C6
SYMATTR Value 100n
SYMBOL diode 1488 -720 R270
WINDOW 0 32 32 VTop 2
WINDOW 3 0 32 VBottom 2
SYMATTR InstName D1
SYMATTR Value 1N914
SYMBOL diode 1552 -672 R90
WINDOW 0 0 32 VBottom 2
WINDOW 3 32 32 VTop 2
SYMATTR InstName D2
SYMATTR Value 1N914
SYMBOL res 1568 -880 R0
SYMATTR InstName R10
SYMATTR Value 10k
SYMBOL npn 1520 -464 R0
SYMATTR InstName Q2
SYMATTR Value 2N5089
SYMBOL res 1568 -352 R0
SYMATTR InstName R11
SYMATTR Value 100
SYMBOL cap 1744 -432 R90
WINDOW 0 0 32 VBottom 2
WINDOW 3 32 32 VTop 2
SYMATTR InstName C7
SYMATTR Value 100n
SYMBOL res 1888 -432 R90
WINDOW 0 0 56 VBottom 2
WINDOW 3 32 56 VTop 2
SYMATTR InstName R12
SYMATTR Value 8.2k
SYMBOL res 1904 -352 R0
SYMATTR InstName R13
SYMATTR Value 100k
SYMBOL res 2048 -512 R90
WINDOW 0 0 56 VBottom 2
WINDOW 3 32 56 VTop 2
SYMATTR InstName R14
SYMATTR Value 470k
SYMBOL cap 2016 -608 R90
WINDOW 0 0 32 VBottom 2
WINDOW 3 32 32 VTop 2
SYMATTR InstName C8
SYMATTR Value 500p
SYMBOL cap 2016 -704 R90
WINDOW 0 0 32 VBottom 2
WINDOW 3 32 32 VTop 2
SYMATTR InstName C9
SYMATTR Value 100n
SYMBOL diode 2048 -720 R270
WINDOW 0 32 32 VTop 2
WINDOW 3 0 32 VBottom 2
SYMATTR InstName D3
SYMATTR Value 1N914
SYMBOL diode 2112 -672 R90
WINDOW 0 0 32 VBottom 2
WINDOW 3 32 32 VTop 2
SYMATTR InstName D4
SYMATTR Value 1N914
SYMBOL npn 2080 -464 R0
SYMATTR InstName Q3
SYMATTR Value 2N5089
SYMBOL res 2128 -352 R0
SYMATTR InstName R15
SYMATTR Value 100
SYMBOL res 2128 -864 R0
SYMATTR InstName R16
SYMATTR Value 15k
SYMBOL cap 2336 -560 R90
WINDOW 0 0 32 VBottom 2
WINDOW 3 32 32 VTop 2
SYMATTR InstName C10
SYMATTR Value 4.7n
SYMBOL res 2368 -704 R0
SYMATTR InstName R17
SYMATTR Value 33k
SYMBOL res 2368 -416 R90
WINDOW 0 0 56 VBottom 2
WINDOW 3 32 56 VTop 2
SYMATTR InstName R18
SYMATTR Value 33k
SYMBOL cap 2368 -336 R0
SYMATTR InstName C11
SYMATTR Value 10n
SYMBOL potentiometer_standard 2368 -528 R0
SYMATTR InstName U2
SYMATTR Value Rtot=100K wiper={tone}
SYMATTR SpiceLine ""
SYMBOL cap 2688 -480 R90
WINDOW 0 0 32 VBottom 2
WINDOW 3 32 32 VTop 2
SYMATTR InstName C12
SYMATTR Value 100n
SYMBOL res 2736 -624 R0
SYMATTR InstName R19
SYMATTR Value 390k
SYMBOL res 2736 -416 R0
SYMATTR InstName R20
SYMATTR Value 100k
SYMBOL npn 2800 -512 R0
SYMATTR InstName Q4
SYMATTR Value 2N5089
SYMBOL res 2848 -688 R0
SYMATTR InstName R21
SYMATTR Value 12k
SYMBOL res 2848 -368 R0
SYMATTR InstName R22
SYMATTR Value 2.7k
SYMBOL cap 2976 -560 R90
WINDOW 0 0 32 VBottom 2
WINDOW 3 32 32 VTop 2
SYMATTR InstName C13
SYMATTR Value 100n
SYMBOL potentiometer_standard 3024 -496 R0
SYMATTR InstName U3
SYMATTR Value Rtot=100K wiper={volume}
SYMATTR SpiceLine ""
SYMBOL voltage 192 -880 R0
WINDOW 123 0 0 Left 2
WINDOW 39 0 0 Left 2
SYMATTR InstName V1
SYMATTR Value 9V
SYMBOL voltage 144 -384 R0
WINDOW 123 24 44 Left 2
WINDOW 39 0 0 Left 2
SYMATTR Value2 AC 1 0
SYMATTR InstName V2
SYMATTR Value SINE(0 100m 800)
TEXT 152 -104 Left 2 !.include potentiometer_standard.lib
TEXT 152 -80 Left 2 !.include potentiometer_gm.lib
TEXT 152 -56 Left 2 !.step param sustain 0.1 1 0.1
TEXT 152 -32 Left 2 !.param tone 0.5
TEXT 152 -8 Left 2 !.param volume 0.5
TEXT 152 40 Left 2 !.tran 0 25ms 20ms
