Version 4
SHEET 1 2004 680
WIRE 208 -448 208 -480
WIRE 208 -320 208 -368
WIRE 464 -320 208 -320
WIRE 1312 -320 464 -320
WIRE 1488 -320 1312 -320
WIRE 832 -208 800 -208
WIRE 944 -208 896 -208
WIRE 464 -192 464 -320
WIRE 1312 -128 1312 -320
WIRE 1488 -128 1488 -320
WIRE 304 -96 272 -96
WIRE 464 -96 464 -112
WIRE 464 -96 384 -96
WIRE 496 -96 464 -96
WIRE 640 -96 560 -96
WIRE 704 -96 640 -96
WIRE 800 -96 800 -208
WIRE 800 -96 784 -96
WIRE 832 -96 800 -96
WIRE 944 -96 944 -208
WIRE 944 -96 912 -96
WIRE 992 -96 944 -96
WIRE 1168 -96 1072 -96
WIRE 208 -80 208 -320
WIRE 336 -32 304 -32
WIRE 464 -32 464 -96
WIRE 464 -32 400 -32
WIRE 880 0 880 -48
WIRE 464 16 464 -32
WIRE 1168 16 1168 -96
WIRE 1360 16 1168 16
WIRE 1488 16 1488 -48
WIRE 1488 16 1424 16
WIRE 1552 16 1488 16
WIRE 1680 16 1616 16
WIRE 208 64 208 0
WIRE 304 64 304 -32
WIRE 304 64 208 64
WIRE 400 64 304 64
WIRE 1680 64 1680 16
WIRE 1488 80 1488 16
WIRE 1840 112 1728 112
WIRE 1888 112 1840 112
WIRE 464 128 464 112
WIRE 576 128 464 128
WIRE 880 128 880 80
WIRE 960 128 880 128
WIRE 1312 128 1312 -48
WIRE 1312 128 1024 128
WIRE 1424 128 1312 128
WIRE 208 144 208 64
WIRE 576 144 576 128
WIRE 880 176 880 128
WIRE -160 192 -240 192
WIRE -64 192 -160 192
WIRE 32 192 -64 192
WIRE 112 192 96 192
WIRE 144 192 112 192
WIRE 1488 192 1488 176
WIRE 1552 192 1488 192
WIRE -64 208 -64 192
WIRE 1680 208 1680 144
WIRE -160 224 -160 192
WIRE 1312 224 1312 128
WIRE 1488 224 1488 192
WIRE 1552 224 1552 192
WIRE 208 256 208 240
WIRE 272 256 272 -96
WIRE 272 256 208 256
WIRE 112 272 112 192
WIRE 352 272 112 272
WIRE 464 272 464 208
WIRE 464 272 432 272
WIRE 208 288 208 256
WIRE 336 288 208 288
WIRE 336 304 336 288
WIRE 880 304 880 256
WIRE -160 320 -160 304
WIRE -64 320 -64 288
WIRE 464 320 464 272
WIRE 208 352 208 288
WIRE 640 352 640 -96
WIRE 704 352 640 352
WIRE 832 352 768 352
WIRE 992 352 912 352
WIRE 1168 352 1168 16
WIRE 1168 352 1056 352
WIRE 1312 352 1312 304
WIRE 1488 352 1488 304
WIRE 1552 352 1552 288
WIRE 336 416 336 368
WIRE 464 448 464 400
WIRE 576 448 576 208
WIRE 336 512 336 496
WIRE 384 512 384 464
WIRE 384 512 336 512
WIRE 208 560 208 432
WIRE 336 560 336 512
FLAG -240 192 INPUT
IOPIN -240 192 In
FLAG -160 320 0
FLAG 208 560 0
FLAG 336 560 0
FLAG 208 -480 0
FLAG 464 448 0
FLAG 576 448 0
FLAG -64 320 0
FLAG 1312 352 0
FLAG 1488 352 0
FLAG 1552 352 0
FLAG 1680 208 0
FLAG 1840 112 OUT
SYMBOL cap 96 176 R90
WINDOW 0 0 32 VBottom 2
WINDOW 3 32 32 VTop 2
SYMATTR InstName C1
SYMATTR Value 220n
SYMBOL voltage -160 208 R0
WINDOW 3 24 44 Left 2
WINDOW 123 24 72 Left 2
WINDOW 39 0 0 Left 2
SYMATTR Value SINE(0 100m 800)
SYMATTR Value2 AC 1 0
SYMATTR InstName V1
SYMBOL npn 144 144 R0
SYMATTR InstName Q1
SYMATTR Value 2N3904
SYMBOL voltage 208 -352 R180
WINDOW 0 24 96 Left 2
WINDOW 3 24 16 Left 2
WINDOW 123 0 0 Left 2
WINDOW 39 0 0 Left 2
SYMATTR InstName V2
SYMATTR Value 18V
SYMBOL res 192 -96 R0
SYMATTR InstName R1
SYMATTR Value 120K
SYMATTR SpiceLine tol=1% pwr=0.25w
SYMBOL res 192 336 R0
SYMATTR InstName R2
SYMATTR Value 4.7k
SYMATTR SpiceLine tol=1% pwr=0.25W
SYMBOL cap 320 304 R0
SYMATTR InstName C2
SYMATTR Value 22µ
SYMBOL npn 400 16 R0
SYMATTR InstName Q2
SYMATTR Value 2N3904
SYMBOL res 448 -208 R0
SYMATTR InstName R4
SYMATTR Value 1.8k
SYMATTR SpiceLine tol=1% pwr=0.25w
SYMBOL res 400 -112 R90
WINDOW 0 0 56 VBottom 2
WINDOW 3 32 56 VTop 2
SYMATTR InstName R5
SYMATTR Value 12k
SYMATTR SpiceLine tol=1% pwr=0.25w
SYMBOL cap 400 -48 R90
WINDOW 0 0 32 VBottom 2
WINDOW 3 32 32 VTop 2
SYMATTR InstName C3
SYMATTR Value 220p
SYMBOL res 448 112 R0
SYMATTR InstName R6
SYMATTR Value 470
SYMATTR SpiceLine tol=1% pwr=0.25w
SYMBOL res 448 304 R0
SYMATTR InstName R7
SYMATTR Value 1.2k
SYMATTR SpiceLine tol=1% pwr=0.25w
SYMBOL res 448 256 R90
WINDOW 0 0 56 VBottom 2
WINDOW 3 32 56 VTop 2
SYMATTR InstName R8
SYMATTR Value 150k
SYMATTR SpiceLine tol=1% pwr=0.25w
SYMBOL cap 560 144 R0
SYMATTR InstName C4
SYMATTR Value 22µ
SYMBOL cap 560 -112 R90
WINDOW 0 0 32 VBottom 2
WINDOW 3 32 32 VTop 2
SYMATTR InstName C5
SYMATTR Value 10µ
SYMBOL res -80 192 R0
WINDOW 3 36 68 Left 2
SYMATTR Value 1Meg
SYMATTR InstName R9
SYMBOL potentiometer_standard 320 400 R0
SYMATTR InstName GAIN
SYMATTR Value Rtot=1K wiper={gain}
SYMATTR SpiceLine ""
SYMBOL res 800 -112 R90
WINDOW 0 0 56 VBottom 2
WINDOW 3 32 56 VTop 2
SYMATTR InstName R3
SYMATTR Value 4.7k
SYMATTR SpiceLine tol=1% pwr=0.25w
SYMBOL cap 768 336 R90
WINDOW 0 0 32 VBottom 2
WINDOW 3 32 32 VTop 2
SYMATTR InstName C6
SYMATTR Value 10n
SYMBOL potentiometer_standard 816 368 R270
SYMATTR InstName TREBLE
SYMATTR Value Rtot=100K wiper={treble}
SYMATTR SpiceLine Rtap=50k tap=0.5
SYMBOL potentiometer_standard 816 -112 M90
SYMATTR InstName BASS
SYMATTR Value Rtot=100K wiper={bass}
SYMATTR SpiceLine Rtap=50k tap=0.5
SYMBOL res 1088 -112 R90
WINDOW 0 0 56 VBottom 2
WINDOW 3 32 56 VTop 2
SYMATTR InstName R10
SYMATTR Value 4.7k
SYMATTR SpiceLine tol=1% pwr=0.25w
SYMBOL cap 896 -224 R90
WINDOW 0 0 32 VBottom 2
WINDOW 3 32 32 VTop 2
SYMATTR InstName C7
SYMATTR Value 100n
SYMBOL cap 1056 336 R90
WINDOW 0 0 32 VBottom 2
WINDOW 3 32 32 VTop 2
SYMATTR InstName C8
SYMATTR Value 10n
SYMBOL res 896 96 R180
WINDOW 0 36 76 Left 2
WINDOW 3 36 40 Left 2
SYMATTR InstName R11
SYMATTR Value 39k
SYMATTR SpiceLine tol=1% pwr=0.25w
SYMBOL res 896 272 R180
WINDOW 0 36 76 Left 2
WINDOW 3 36 40 Left 2
SYMATTR InstName R12
SYMATTR Value 5.6k
SYMATTR SpiceLine tol=1% pwr=0.25w
SYMBOL cap 1024 112 R90
WINDOW 0 0 32 VBottom 2
WINDOW 3 32 32 VTop 2
SYMATTR InstName C9
SYMATTR Value 100n
SYMBOL res 1328 -32 R180
WINDOW 0 36 76 Left 2
WINDOW 3 36 40 Left 2
SYMATTR InstName R13
SYMATTR Value 180k
SYMATTR SpiceLine tol=1% pwr=0.25w
SYMBOL res 1328 320 R180
WINDOW 0 36 76 Left 2
WINDOW 3 36 40 Left 2
SYMATTR InstName R14
SYMATTR Value 33k
SYMATTR SpiceLine tol=1% pwr=0.25w
SYMBOL cap 1424 0 R90
WINDOW 0 0 32 VBottom 2
WINDOW 3 32 32 VTop 2
SYMATTR InstName C10
SYMATTR Value 22µ
SYMBOL res 1504 -32 R180
WINDOW 0 36 76 Left 2
WINDOW 3 36 40 Left 2
SYMATTR InstName R15
SYMATTR Value 3.9k
SYMATTR SpiceLine tol=1% pwr=0.25w
SYMBOL npn 1424 80 R0
SYMATTR InstName Q3
SYMATTR Value 2N3904
SYMBOL res 1504 320 R180
WINDOW 0 36 76 Left 2
WINDOW 3 36 40 Left 2
SYMATTR InstName R16
SYMATTR Value 1k
SYMATTR SpiceLine tol=1% pwr=0.25w
SYMBOL cap 1568 288 R180
WINDOW 0 24 56 Left 2
WINDOW 3 24 8 Left 2
SYMATTR InstName C11
SYMATTR Value 10µ
SYMBOL cap 1616 0 R90
WINDOW 0 0 32 VBottom 2
WINDOW 3 32 32 VTop 2
SYMATTR InstName C12
SYMATTR Value 220n
SYMBOL potentiometer_standard 1664 48 R0
SYMATTR InstName VOL
SYMATTR Value Rtot=100K wiper={vol}
SYMATTR SpiceLine Rtap=10k tap=0.5
SYMATTR SpiceModel pot_plog
TEXT -496 -80 Left 2 !.tran 0 25ms 20ms
TEXT -496 -200 Left 2 !.step param gain 0.1 1 0.1
TEXT -496 -224 Left 2 !.include potentiometer_standard.lib
TEXT -496 -176 Left 2 !.param treble 0.5
TEXT -496 -152 Left 2 !.param bass 0.5
TEXT -496 -128 Left 2 !.param vol 0.5
TEXT -496 -104 Left 2 ;.ac oct 40 20 20K
TEXT -496 -48 Left 2 ;.wave "c:\\users\\yann\\desktop\\out3.wav" 16 44100 OUT
